Circuit: * C:\users\neill-lambert\Documents\LTspiceXVII\schematics\checking_models.asc

Fatal Error: No analysis request found.
