Circuit: * C:\users\neill-lambert\Documents\LTspiceXVII\schematics\Draft1.asc

Fatal Error: No analysis request found.
