Circuit: * C:\users\neill-lambert\Documents\LTspiceXVII\schematics\Draft2.asc

Fatal Error: No analysis request found.
