Circuit: * C:\users\neill-lambert\Documents\LTspiceXVII\schematics\opamp_booster_circuit.asc

Fatal Error: No analysis request found.
