Circuit: * C:\users\neill-lambert\Documents\LTspiceXVII\schematics\transistor_boost.asc

Fatal Error: Transistor: Missing node(s).
